Examples/InverterModels/PVSystem2/InvControl2/MonitoredVoltage/Mon_voltage_MAX_Mix_avg_sec10_VLN_Node.Txt

LINE-GROUND and LINE-LINE VOLTAGES BY BUS & NODE

Bus  Node    VLN (kV)   Angle      pu     Base kV    Node-Node   VLL (kV)  Angle      pu

A .. 1       8.5377 /_    6.5    1.0716    13.800        1-2      14.79 /_   36.5    1.0717
   - 2       8.5432 /_ -113.5    1.0723    13.800        2-3     14.792 /_  -83.5    1.0719
   - 3       8.5395 /_  126.6    1.0718    13.800        3-1     14.794 /_  156.5     1.072
B .. 1       8.6854 /_    8.7    1.0901    13.800        1-2     14.989 /_   38.5    1.0862
   - 2       8.6167 /_ -111.4    1.0815    13.800        2-3     14.898 /_  -81.3    1.0796
   - 3       8.6069 /_  128.8    1.0803    13.800        3-1     14.988 /_  158.9    1.0861
C .. 1      0.30295 /_    8.7    1.0932     0.480        1-2    0.52284 /_   38.5    1.0892
   - 2      0.30056 /_ -111.4    1.0846     0.480        2-3    0.51967 /_  -81.3    1.0826
   - 3      0.30022 /_  128.8    1.0833     0.480        3-1    0.52281 /_  158.9    1.0892
